** Static Analysis with Boundary Conditions and Output
** Sample 3: Complete static step with loads and outputs
*PART, NAME=CANTILEVER_BEAM
*NODE, NSET=ALL_NODES
 1, 0.0, 0.0, 0.0
 2, 1.0, 0.0, 0.0
 3, 2.0, 0.0, 0.0
 4, 3.0, 0.0, 0.0
*ELEMENT, TYPE=B21, ELSET=BEAM_ELEMENTS
 1, 1, 2
 2, 2, 3
 3, 3, 4
*MATERIAL, NAME=ALUMINUM
*ELASTIC
 70000.0, 0.33
*END PART
*ASSEMBLY, NAME=ASSEMBLY_1
*INSTANCE, PART=CANTILEVER_BEAM, NAME=BEAM_INSTANCE
*END INSTANCE
*BOUNDARY
 BEAM_INSTANCE.1, 1, 3, 0.0
*END ASSEMBLY
*STEP, NAME=STATIC_LOAD, INC=100
*STATIC, SOLVER=PARDISO
 1.0, 1.0, 0.01, 1.0
*CLOAD
 BEAM_INSTANCE.4, 2, -1000.0
*BOUNDARY
 BEAM_INSTANCE.1, 1, 6, 0.0
*OUTPUT, FIELD, VARIABLE=PRESELECT
*NODE OUTPUT
 U, RF, S
*ELEMENT OUTPUT
 S, E, MISES
*FIELD OUTPUT, NUMBER INTERVAL=10
 U, RF, S, E
*END STEP
